72
Cr O2 2 x 2 x 3 supercell
Cr  0.0000000000000   0.0000000000000   0.0000000000000
Cr  0.0000000000000   0.0000000000000   2.9170000553000
Cr  0.0000000000000   0.0000000000000   5.8340001106000
Cr  0.0000000000000   4.4210000038000   0.0000000000000
Cr  0.0000000000000   4.4210000038000   2.9170000553000
Cr  0.0000000000000   4.4210000038000   5.8340001106000
Cr  4.4210000038000   0.0000000000000   0.0000000000000
Cr  4.4210000038000   0.0000000000000   2.9170000553000
Cr  4.4210000038000   0.0000000000000   5.8340001106000
Cr  4.4210000038000   4.4210000038000   0.0000000000000
Cr  4.4210000038000   4.4210000038000   2.9170000553000
Cr  4.4210000038000   4.4210000038000   5.8340001106000
Cr  2.2105000019000   2.2105000019000   1.4585000276500
Cr  2.2105000019000   2.2105000019000   4.3755000829500
Cr  2.2105000019000   2.2105000019000   7.2925001382500
Cr  2.2105000019000   6.6315000057000   1.4585000276500
Cr  2.2105000019000   6.6315000057000   4.3755000829500
Cr  2.2105000019000   6.6315000057000   7.2925001382500
Cr  6.6315000057000   2.2105000019000   1.4585000276500
Cr  6.6315000057000   2.2105000019000   4.3755000829500
Cr  6.6315000057000   2.2105000019000   7.2925001382500
Cr  6.6315000057000   6.6315000057000   1.4585000276500
Cr  6.6315000057000   6.6315000057000   4.3755000829500
Cr  6.6315000057000   6.6315000057000   7.2925001382500
O  1.3307209967228   1.3307209967228   0.0000000000000
O  1.3307209967228   1.3307209967228   2.9170000553000
O  1.3307209967228   1.3307209967228   5.8340001106000
O  1.3307209967228   5.7517210005228   0.0000000000000
O  1.3307209967228   5.7517210005228   2.9170000553000
O  1.3307209967228   5.7517210005228   5.8340001106000
O  5.7517210005228   1.3307209967228   0.0000000000000
O  5.7517210005228   1.3307209967228   2.9170000553000
O  5.7517210005228   1.3307209967228   5.8340001106000
O  5.7517210005228   5.7517210005228   0.0000000000000
O  5.7517210005228   5.7517210005228   2.9170000553000
O  5.7517210005228   5.7517210005228   5.8340001106000
O  3.0902790070772   3.0902790070772   0.0000000000000
O  3.0902790070772   3.0902790070772   2.9170000553000
O  3.0902790070772   3.0902790070772   5.8340001106000
O  3.0902790070772   7.5112790108772   0.0000000000000
O  3.0902790070772   7.5112790108772   2.9170000553000
O  3.0902790070772   7.5112790108772   5.8340001106000
O  7.5112790108772   3.0902790070772   0.0000000000000
O  7.5112790108772   3.0902790070772   2.9170000553000
O  7.5112790108772   3.0902790070772   5.8340001106000
O  7.5112790108772   7.5112790108772   0.0000000000000
O  7.5112790108772   7.5112790108772   2.9170000553000
O  7.5112790108772   7.5112790108772   5.8340001106000
O  0.8797790051772   3.5412209986228   1.4585000276500
O  0.8797790051772   3.5412209986228   4.3755000829500
O  0.8797790051772   3.5412209986228   7.2925001382500
O  0.8797790051772   7.9622210024228   1.4585000276500
O  0.8797790051772   7.9622210024228   4.3755000829500
O  0.8797790051772   7.9622210024228   7.2925001382500
O  5.3007790089772   3.5412209986228   1.4585000276500
O  5.3007790089772   3.5412209986228   4.3755000829500
O  5.3007790089772   3.5412209986228   7.2925001382500
O  5.3007790089772   7.9622210024228   1.4585000276500
O  5.3007790089772   7.9622210024228   4.3755000829500
O  5.3007790089772   7.9622210024228   7.2925001382500
O  3.5412209986228   0.8797790051772   1.4585000276500
O  3.5412209986228   0.8797790051772   4.3755000829500
O  3.5412209986228   0.8797790051772   7.2925001382500
O  3.5412209986228   5.3007790089772   1.4585000276500
O  3.5412209986228   5.3007790089772   4.3755000829500
O  3.5412209986228   5.3007790089772   7.2925001382500
O  7.9622210024228   0.8797790051772   1.4585000276500
O  7.9622210024228   0.8797790051772   4.3755000829500
O  7.9622210024228   0.8797790051772   7.2925001382500
O  7.9622210024228   5.3007790089772   1.4585000276500
O  7.9622210024228   5.3007790089772   4.3755000829500
O  7.9622210024228   5.3007790089772   7.2925001382500
