72
O2 Ti 2 x 2 x 3 supercell
Ti  0.0000000000000   0.0000000000000   0.0000000000000
Ti  0.0000000000000   0.0000000000000   2.9575600624000
Ti  0.0000000000000   0.0000000000000   5.9151201248000
Ti  0.0000000000000   4.5887799263000   0.0000000000000
Ti  0.0000000000000   4.5887799263000   2.9575600624000
Ti  0.0000000000000   4.5887799263000   5.9151201248000
Ti  4.5887799263000   0.0000000000000   0.0000000000000
Ti  4.5887799263000   0.0000000000000   2.9575600624000
Ti  4.5887799263000   0.0000000000000   5.9151201248000
Ti  4.5887799263000   4.5887799263000   0.0000000000000
Ti  4.5887799263000   4.5887799263000   2.9575600624000
Ti  4.5887799263000   4.5887799263000   5.9151201248000
Ti  2.2943899631500   2.2943899631500   1.4787800312000
Ti  2.2943899631500   2.2943899631500   4.4363400936000
Ti  2.2943899631500   2.2943899631500   7.3939001560000
Ti  2.2943899631500   6.8831698894500   1.4787800312000
Ti  2.2943899631500   6.8831698894500   4.4363400936000
Ti  2.2943899631500   6.8831698894500   7.3939001560000
Ti  6.8831698894500   2.2943899631500   1.4787800312000
Ti  6.8831698894500   2.2943899631500   4.4363400936000
Ti  6.8831698894500   2.2943899631500   7.3939001560000
Ti  6.8831698894500   6.8831698894500   1.4787800312000
Ti  6.8831698894500   6.8831698894500   4.4363400936000
Ti  6.8831698894500   6.8831698894500   7.3939001560000
O  1.3873257754641   1.3873257754641   0.0000000000000
O  1.3873257754641   1.3873257754641   2.9575600624000
O  1.3873257754641   1.3873257754641   5.9151201248000
O  1.3873257754641   5.9761057017641   0.0000000000000
O  1.3873257754641   5.9761057017641   2.9575600624000
O  1.3873257754641   5.9761057017641   5.9151201248000
O  5.9761057017641   1.3873257754641   0.0000000000000
O  5.9761057017641   1.3873257754641   2.9575600624000
O  5.9761057017641   1.3873257754641   5.9151201248000
O  5.9761057017641   5.9761057017641   0.0000000000000
O  5.9761057017641   5.9761057017641   2.9575600624000
O  5.9761057017641   5.9761057017641   5.9151201248000
O  3.2014540131725   3.2014540131725   0.0000000000000
O  3.2014540131725   3.2014540131725   2.9575600624000
O  3.2014540131725   3.2014540131725   5.9151201248000
O  3.2014540131725   7.7902339394725   0.0000000000000
O  3.2014540131725   7.7902339394725   2.9575600624000
O  3.2014540131725   7.7902339394725   5.9151201248000
O  7.7902339394725   3.2014540131725   0.0000000000000
O  7.7902339394725   3.2014540131725   2.9575600624000
O  7.7902339394725   3.2014540131725   5.9151201248000
O  7.7902339394725   7.7902339394725   0.0000000000000
O  7.7902339394725   7.7902339394725   2.9575600624000
O  7.7902339394725   7.7902339394725   5.9151201248000
O  0.9070641876859   3.6817158762775   1.4787800312000
O  0.9070641876859   3.6817158762775   4.4363400936000
O  0.9070641876859   3.6817158762775   7.3939001560000
O  0.9070641876859   8.2704958025775   1.4787800312000
O  0.9070641876859   8.2704958025775   4.4363400936000
O  0.9070641876859   8.2704958025775   7.3939001560000
O  5.4958441139859   3.6817158762775   1.4787800312000
O  5.4958441139859   3.6817158762775   4.4363400936000
O  5.4958441139859   3.6817158762775   7.3939001560000
O  5.4958441139859   8.2704958025775   1.4787800312000
O  5.4958441139859   8.2704958025775   4.4363400936000
O  5.4958441139859   8.2704958025775   7.3939001560000
O  3.6817158762775   0.9070641876859   1.4787800312000
O  3.6817158762775   0.9070641876859   4.4363400936000
O  3.6817158762775   0.9070641876859   7.3939001560000
O  3.6817158762775   5.4958441139859   1.4787800312000
O  3.6817158762775   5.4958441139859   4.4363400936000
O  3.6817158762775   5.4958441139859   7.3939001560000
O  8.2704958025775   0.9070641876859   1.4787800312000
O  8.2704958025775   0.9070641876859   4.4363400936000
O  8.2704958025775   0.9070641876859   7.3939001560000
O  8.2704958025775   5.4958441139859   1.4787800312000
O  8.2704958025775   5.4958441139859   4.4363400936000
O  8.2704958025775   5.4958441139859   7.3939001560000
